LTspice 26.0.2 for Windows
Circuit: C:\users\darko\Desktop\projects\signal-generator\simulation\Draft1.net
Start Time: Fri Jul 17 20:28:35 2026
solver = Normal
Maximum thread count: 12
tnom = 27
temp = 27
method = trap
Compress1stOrder = true
Compress2ndOrder = true
C:\users\darko\Desktop\projects\signal-generator\simulation\Draft1.net(4): Limiting rise time to 1e-06.

V3 N003 0 PULSE(0 3.3 0 0 0 10u 20u)
^^^^^^^^^^^^^^^^^^^^^^^^^^^^^^^^^^^^
C:\users\darko\Desktop\projects\signal-generator\simulation\Draft1.net(4): Limiting fall time to 1e-06.

V3 N003 0 PULSE(0 3.3 0 0 0 10u 20u)
^^^^^^^^^^^^^^^^^^^^^^^^^^^^^^^^^^^^
Direct Newton iteration succeeded in finding operating point.
Total elapsed time: 0.436 seconds.

Files loaded:
C:\users\darko\Desktop\projects\signal-generator\simulation\Draft1.net
C:\users\darko\Desktop\projects\signal-generator\simulation\TL072.lib

