LTspice 26.0.2 for Windows
Circuit: C:\users\darko\Desktop\projects\signal-generator\simulation\offset.net
Start Time: Fri Jul 17 19:34:09 2026
solver = Normal
Maximum thread count: 12
tnom = 27
temp = 27
method = trap
Compress1stOrder = true
Compress2ndOrder = true
Direct Newton iteration succeeded in finding operating point.
Changing Tseed to 1e-08
Changing Tseed to 1e-10
Changing Tseed to 1e-07
Changing Tseed to 1e-11
Changing Tseed to 1e-06
Changing Tseed to 1e-12
Changing Tseed to 1e-05
Changing Tseed to 1e-13
Changing Tseed to 0.0001
Changing Tseed to 1e-14
Changing Tseed to 0.001
Changing Tseed to 1e-15
Total elapsed time: 0.336 seconds.

Files loaded:
C:\users\darko\Desktop\projects\signal-generator\simulation\offset.net
C:\users\darko\AppData\Local\LTspice\lib\cmp\standard.bjt
C:\users\darko\AppData\Local\LTspice\lib\cmp\standard.mos
C:\users\darko\Desktop\projects\signal-generator\simulation\TL072.lib

