LTspice 26.0.2 for Windows
Circuit: C:\users\darko\Desktop\projects\signal-generator\simulation\offset-smaller-r2r.net
Start Time: Fri Jul 17 19:52:08 2026
solver = Normal
Maximum thread count: 12
tnom = 27
temp = 27
method = trap
Compress1stOrder = true
Compress2ndOrder = true
Early termination of direct N-R iteration.
Direct Newton iteration failed to find operating point.
Starting Gmin stepping
Gmin stepping succeeded in finding the operating point.

Total elapsed time: 0.163 seconds.

Files loaded:
C:\users\darko\Desktop\projects\signal-generator\simulation\offset-smaller-r2r.net
C:\users\darko\AppData\Local\LTspice\lib\cmp\standard.bjt
C:\users\darko\Desktop\projects\signal-generator\simulation\TL072.lib

